254
XYZ File
 C    1.186000   -5.065000    0.432000
 C    2.638000   -4.726000    0.566000
 F    0.526000   -4.655000    1.510000
 F    1.048000   -6.380000    0.305000
 F    0.677000   -4.462000   -0.636000
 F    2.763000   -3.409000    0.700000
 F    3.131000   -5.330000    1.641000
 C    3.393000   -5.174000   -0.647000
 C    4.771000   -4.569000   -0.680000
 F    3.488000   -6.500000   -0.642000
 F    2.726000   -4.786000   -1.727000
 F    4.796000   -3.521000    0.135000
 F    5.031000   -4.171000   -1.921000
 C    5.834000   -5.550000   -0.261000
 C    7.185000   -4.874000   -0.211000
 F    5.872000   -6.545000   -1.141000
 F    5.540000   -6.032000    0.944000
 F    7.306000   -4.275000    0.966000
 F    7.243000   -3.963000   -1.176000
 C    8.325000   -5.855000   -0.396000
 C    9.636000   -5.287000    0.112000
 F    8.052000   -6.969000    0.276000
 F    8.441000   -6.135000   -1.691000
 F    9.725000   -4.021000   -0.281000
 F    9.618000   -5.335000    1.440000
 C   10.848000   -6.051000   -0.403000
 C   12.130000   -5.595000    0.271000
 F   10.671000   -7.348000   -0.169000
 F   10.957000   -5.851000   -1.712000
 F   12.261000   -4.290000    0.061000
 F   12.018000   -5.819000    1.577000
 C   13.376000   -6.309000   -0.249000
 C   14.653000   -5.729000    0.346000
 F   13.301000   -7.598000    0.066000
 F   13.435000   -6.179000   -1.571000
 F   14.935000   -4.602000   -0.298000
 F   14.425000   -5.459000    1.626000
 C   15.862000   -6.671000    0.267000
 C   17.114000   -6.037000   -0.375000
 O   15.495000   -7.820000   -0.425000
 F   16.173000   -7.019000    1.510000
 F   16.962999   -4.718000   -0.364000
 F   17.198999   -6.457000   -1.635000
 C   18.434000   -6.371000    0.354000
 C   15.520000   -8.884000    0.467000
 F   14.719000   -8.609000    1.489000
 F   16.760000   -9.043000    0.911000
 C   15.072000  -10.166000   -0.168000
 C   13.575000  -10.248000   -0.157000
 F   13.129000  -10.215000    1.094000
 F   13.073000   -9.221000   -0.835000
 F   13.189000  -11.386000   -0.724000
 O   15.666000  -11.202000    0.557000
 C   14.953000  -12.388000    0.742000
 F   13.687000  -12.097000    1.022000
 F   15.494000  -13.055000    1.756000
 C   15.007000  -13.250000   -0.477000
 F   16.240000  -13.236000   -0.970000
 F   14.160000  -12.776000   -1.387000
 S   14.546000  -14.906000   -0.058000
 O   15.467000  -15.423000    0.872000
 O   13.263000  -14.893000    0.513000
 O   14.532000  -15.849000   -1.378000
 F   15.498000  -10.208000   -1.425000
 C   19.718000   -5.925000   -0.392000
 F   18.486000   -7.685000    0.549000
 F   18.402000   -5.755000    1.532000
 F   19.624001   -4.623000   -0.623000
 F   19.775000   -6.571000   -1.553000
 C   21.028000   -6.186000    0.392000
 C   22.325001   -5.762000   -0.345000
 F   21.097000   -7.481000    0.672000
 F   20.958000   -5.493000    1.525000
 F   22.301001   -4.444000   -0.483000
 F   22.330999   -6.324000   -1.552000
 C   23.638000   -6.153000    0.389000
 C   24.944000   -5.606000   -0.253000
 F   23.715000   -7.477000    0.435000
 F   23.566999   -5.672000    1.626000
 F   24.926001   -4.283000   -0.140000
 F   24.950001   -5.930000   -1.545000
 C   26.267000   -6.126000    0.389000
 C   27.577999   -5.553000   -0.231000
 F   26.247000   -5.827000    1.685000
 F   26.299999   -7.446000    0.248000
 F   27.677000   -6.024000   -1.467000
 F   27.465000   -4.229000   -0.275000
 C   28.905001   -5.895000    0.525000
 C   30.094999   -6.328000   -0.383000
 F   28.653000   -6.881000    1.383000
 F   29.274000   -4.813000    1.203000
 F   29.684999   -6.138000   -1.631000
 F   30.305000   -7.628000   -0.198000
 C   31.461000   -5.580000   -0.238000
 C   32.560001   -6.221000    0.657000
 F   31.966999   -5.439000   -1.456000
 F   31.188000   -4.379000    0.261000
 F   32.869999   -5.337000    1.594000
 F   32.041000   -7.300000    1.233000
 C   33.896000   -6.637000   -0.052000
 C   35.200001   -5.960000    0.488000
 O   34.034000   -8.008000    0.130000
 F   33.782001   -6.352000   -1.344000
 F   35.082001   -4.649000    0.320000
 F   35.301998   -6.232000    1.783000
 C   36.529999   -6.412000   -0.210000
 C   34.153999   -8.685000   -1.073000
 F   33.452000   -8.052000   -2.004000
 F   35.430000   -8.730000   -1.435000
 C   33.636002  -10.082000   -0.912000
 C   32.223000  -10.049000   -0.421000
 F   32.160999   -9.435000    0.755000
 F   31.472000   -9.397000   -1.301000
 F   31.770000  -11.291000   -0.289000
 O   34.430000  -10.781000   -0.007000
 C   34.500999  -12.117000   -0.391000
 F   33.705002  -12.300000   -1.436000
 F   35.752998  -12.415000   -0.728000
 C   34.071999  -13.014000    0.725000
 F   34.861000  -12.818000    1.778000
 F   32.816002  -12.728000    1.057000
 S   34.161999  -14.704000    0.220000
 O   35.487000  -15.030000   -0.112000
 O   33.733002  -15.524000    1.285000
 O   33.207001  -14.967000   -1.062000
 F   33.676998  -10.699000   -2.092000
 C   37.860001   -5.847000    0.404000
 F   36.590000   -7.740000   -0.181000
 F   36.477001   -6.009000   -1.474000
 F   37.813999   -4.523000    0.320000
 F   37.916000   -6.203000    1.684000
 C   39.182999   -6.321000   -0.291000
 C   40.512001   -5.678000    0.236000
 F   39.271999   -7.642000   -0.159000
 F   39.080002   -6.023000   -1.581000
 F   40.528000   -4.414000   -0.173000
 F   40.492001   -5.706000    1.564000
 C   41.833000   -6.365000   -0.247000
 C   43.147999   -5.535000   -0.081000
 F   41.969002   -7.504000    0.423000
 F   41.694000   -6.633000   -1.539000
 F   43.068001   -4.848000    1.052000
 F   43.230000   -4.685000   -1.100000
 C   44.465000   -6.375000   -0.028000
 C   45.792999   -5.589000   -0.270000
 F   44.388000   -7.344000   -0.933000
 F   44.542000   -6.914000    1.182000
 F   45.800999   -4.530000    0.531000
 F   45.817001   -5.181000   -1.534000
 C   47.098999   -6.403000    0.009000
 C   48.439999   -5.655000   -0.264000
 F   47.082001   -7.504000   -0.736000
 F   47.096001   -6.744000    1.291000
 F   48.485001   -4.597000    0.539000
 F   48.444000   -5.242000   -1.529000
 C   49.727001   -6.504000   -0.016000
 C   51.076000   -5.767000   -0.247000
 F   49.698002   -6.946000    1.235000
 F   49.693001   -7.542000   -0.845000
 F   51.131001   -5.407000   -1.524000
 F   51.098000   -4.679000    0.517000
 C   52.334000   -6.617000    0.075000
 C   53.625000   -6.164000   -0.651000
 O   52.076000   -7.931000   -0.301000
 F   52.549999   -6.567000    1.385000
 F   53.270000   -5.312000   -1.601000
 F   54.185001   -7.233000   -1.212000
 C   54.699001   -5.477000    0.209000
 C   52.943001   -8.799000    0.357000
 F   52.707001   -8.741000    1.662000
 F   54.200001   -8.433000    0.123000
 C   52.744999  -10.202000   -0.118000
 C   51.290001  -10.544000   -0.041000
 F   50.876999  -10.460000    1.217000
 F   50.601002   -9.695000   -0.796000
 F   51.104000  -11.784000   -0.484000
 O   53.518002  -11.044000    0.689000
 C   53.088001  -12.362000    0.825000
 F   51.773998  -12.371000    1.023000
 F   53.698002  -12.905000    1.872000
 C   53.407001  -13.171000   -0.388000
 F   54.698002  -13.041000   -0.672000
 F   52.681999  -12.733000   -1.413000
 S   53.023998  -14.870000   -0.091000
 O   53.810001  -15.346000    0.972000
 O   51.662998  -14.980000    0.251000
 O   53.311001  -15.769000   -1.408000
 F   53.150002  -10.303000   -1.383000
 C   56.013000   -6.271000    0.370000
 F   54.199001   -5.252000    1.418000
 F   55.001999   -4.318000   -0.360000
 F   56.202999   -6.495000    1.666000
 F   55.900002   -7.438000   -0.257000
 C   57.272999   -5.556000   -0.154000
 C   58.575001   -6.117000    0.450000
 F   57.320999   -5.685000   -1.478000
 F   57.193001   -4.267000    0.160000
 F   58.554001   -5.888000    1.754000
 F   58.618999   -7.428000    0.237000
 C   59.862999   -5.497000   -0.107000
 C   61.110001   -6.082000    0.562000
 F   59.925999   -5.726000   -1.416000
 F   59.828999   -4.185000    0.108000
 F   60.894001   -6.098000    1.873000
 F   61.283001   -7.331000    0.136000
 C   62.400002   -5.301000    0.327000
 C   63.438000   -6.090000   -0.451000
 F   62.911999   -4.989000    1.510000
 F   62.115002   -4.189000   -0.338000
 F   63.299000   -5.804000   -1.740000
 F   63.230999   -7.390000   -0.260000
 C   64.864998   -5.766000   -0.030000
 C   65.855003   -6.273000   -1.055000
 F   65.122002   -6.345000    1.141000
 F   65.011002   -4.452000    0.089000
 F   65.657997   -5.593000   -2.177000
 F   65.635002   -7.564000   -1.279000
 C   67.310997   -6.102000   -0.662000
 C   67.804001   -7.269000    0.156000
 F   68.044998   -6.040000   -1.771000
 F   67.464996   -4.979000    0.034000
 F   67.746002   -6.966000    1.448000
 F   67.028000   -8.317000   -0.091000
 C   69.226997   -7.650000   -0.191000
 C   70.195000   -6.584000    0.220000
 O   69.544998   -8.831000    0.479000
 F   69.315002   -7.836000   -1.505000
 F   69.902000   -5.434000   -0.379000
 F   70.134003   -6.429000    1.539000
 F   71.425003   -6.951000   -0.124000
 C   70.716003   -9.455000    0.053000
 F   71.778000   -8.807000    0.523000
 F   70.762001   -9.469000   -1.274000
 C   70.713997  -10.858000    0.560000
 C   69.586998  -11.610000   -0.068000
 F   69.738998  -11.614000   -1.388000
 F   68.435997  -11.026000    0.247000
 F   69.584000  -12.861000    0.377000
 O   71.912003  -11.496000    0.247000
 C   72.035004  -12.605000    1.076000
 F   70.811996  -12.998000    1.404000
 F   72.698997  -12.263000    2.177000
 C   72.746002  -13.744000    0.405000
 F   74.050003  -13.485000    0.338000
 F   72.549004  -14.849000    1.122000
 S   72.111000  -13.998000   -1.225000
 O   72.525002  -12.934000   -2.047000
 O   70.706001  -14.040000   -1.170000
 O   72.653000  -15.386000   -1.864000
 F   70.558998  -10.838000    1.882000
 H   13.698000  -16.301001   -1.655000
 H   32.467999  -15.620000   -1.002000
 H   52.575001  -16.277000   -1.829000
 H   72.012001  -16.086000   -2.139000
